nrt/data/EMT/EmtNetworkThreeWindingBuses/t3w.iidm
<?xml version="1.0" encoding="UTF-8"?>
<iidm:network xmlns:iidm="http://www.powsybl.org/schema/iidm/1_4" id="emtt3w" caseDate="2024-01-01T00:00:00.000+00:00" forecastDistance="0" sourceFormat="manual">
  <iidm:substation id="S0" country="FR">
    <iidm:voltageLevel id="VL1" nominalV="1.0" topologyKind="BUS_BREAKER">
      <iidm:busBreakerTopology>
        <iidm:bus id="B1" v="1.0" angle="0.0"/>
      </iidm:busBreakerTopology>
      <iidm:generator id="G1" energySource="OTHER" minP="-999.0" maxP="999.0" voltageRegulatorOn="true" targetP="0.0" targetV="1.0" targetQ="0.0" bus="B1" connectableBus="B1" p="0.0" q="0.0">
        <iidm:minMaxReactiveLimits minQ="-999.0" maxQ="999.0"/>
      </iidm:generator>
    </iidm:voltageLevel>
    <iidm:voltageLevel id="VL2" nominalV="1.0" topologyKind="BUS_BREAKER">
      <iidm:busBreakerTopology>
        <iidm:bus id="B2" v="1.0" angle="0.0"/>
      </iidm:busBreakerTopology>
      <iidm:load id="L2" loadType="UNDEFINED" p0="20.0" q0="0.0" p="20.0" q="0.0" bus="B2" connectableBus="B2"/>
    </iidm:voltageLevel>
    <iidm:voltageLevel id="VL3" nominalV="1.0" topologyKind="BUS_BREAKER">
      <iidm:busBreakerTopology>
        <iidm:bus id="B3" v="1.0" angle="0.0"/>
      </iidm:busBreakerTopology>
      <iidm:load id="L3" loadType="UNDEFINED" p0="10.0" q0="0.0" p="10.0" q="0.0" bus="B3" connectableBus="B3"/>
    </iidm:voltageLevel>
    <iidm:threeWindingsTransformer id="T3" r1="0.001" x1="0.01" g1="0.0" b1="0.0" ratedU1="1.0" r2="0.001" x2="0.01" g2="0.0" b2="0.0" ratedU2="1.0" r3="0.001" x3="0.01" g3="0.0" b3="0.0" ratedU3="1.0" ratedU0="1.0" voltageLevelId1="VL1" bus1="B1" connectableBus1="B1" voltageLevelId2="VL2" bus2="B2" connectableBus2="B2" voltageLevelId3="VL3" bus3="B3" connectableBus3="B3" p1="0.0" q1="0.0" p2="0.0" q2="0.0" p3="0.0" q3="0.0"/>
  </iidm:substation>
</iidm:network>
